Circuit: * D:\Ej 7 simulacion rc-pulse.asc

.OP point found by inspection.

Date: Wed Nov  1 15:24:16 2023
Total elapsed time: 0.087 seconds.

tnom = 27
temp = 27
method = modified trap
totiter = 2260
traniter = 2260
tranpoints = 1131
accept = 1107
rejected = 24
matrix size = 3
fillins = 0
solver = Normal
Avg thread counts: 3.6/6.2/6.2/3.6
Matrix Compiler1:       3 opcodes  0.1/[0.0]/0.1
Matrix Compiler2:      15 opcodes  0.1/[0.1]/0.1

